*Heading
** Job name: MatrixExport Model name: Model_Matrix
** Generated by: Abaqus/CAE 2022
*Preprint, echo=NO, model=NO, history=NO, contact=NO
**
** PARTS
**
*Part, name=Boom_5m
*Node
      1,           0.,           0.,           0.
      2, 0.0500000007,           0.,           0.
      3,  0.100000001,           0.,           0.
      4,  0.150000006,           0.,           0.
      5,  0.200000003,           0.,           0.
      6,         0.25,           0.,           0.
      7,  0.300000012,           0.,           0.
      8,  0.349999994,           0.,           0.
      9,  0.400000006,           0.,           0.
     10,  0.449999988,           0.,           0.
     11,          0.5,           0.,           0.
     12,  0.550000012,           0.,           0.
     13,  0.600000024,           0.,           0.
     14,  0.649999976,           0.,           0.
     15,  0.699999988,           0.,           0.
     16,         0.75,           0.,           0.
     17,  0.800000012,           0.,           0.
     18,  0.850000024,           0.,           0.
     19,  0.899999976,           0.,           0.
     20,  0.949999988,           0.,           0.
** ... 81 like lines cut
*Element, type=B31
  1,   1,   2
  2,   2,   3
  3,   3,   4
  4,   4,   5
  5,   5,   6
  6,   6,   7
  7,   7,   8
  8,   8,   9
  9,   9,  10
 10,  10,  11
 11,  11,  12
 12,  12,  13
 13,  13,  14
 14,  14,  15
 15,  15,  16
 16,  16,  17
 17,  17,  18
 18,  18,  19
 19,  19,  20
 20,  20,  21
** ... 80 like lines cut
*Node
    102,           5.,           0.,           0.
*Nset, nset=Boom_5m-RefPt_, internal
102, 
*Nset, nset=_PickedSet2, internal, generate
   1,  101,    1
*Elset, elset=_PickedSet2, internal, generate
   1,  100,    1
*Nset, nset=SET_RP_TIP
 102,
** Section: BoomSection  Profile: Boom_CrossSection
*Beam Section, elset=_PickedSet2, material=Steel, temperature=GRADIENTS, section=BOX
0.14, 0.2, 0.008, 0.008, 0.008, 0.008
0.,0.,1.
*Element, type=MASS, elset=SET_RP_TIP_TipMass_
101, 102
*Mass, elset=SET_RP_TIP_TipMass_
1000., 
*End Part
**  
**
** ASSEMBLY
**
*Assembly, name=Assembly
**  
*Instance, name=Boom_5m-1, part=Boom_5m
*End Instance
**  
*Node
      1,           0.,           0.,           0.
*Nset, nset=ALL_BEAM, instance=Boom_5m-1, generate
   1,  101,    1
*Elset, elset=ALL_BEAM, instance=Boom_5m-1, generate
   1,  100,    1
*Nset, nset=SET_BASE_NODE, instance=Boom_5m-1
 1,
*Nset, nset=SET_RP_BASE
 1,
*Nset, nset=SET_TIP_NODE, instance=Boom_5m-1
 101,
*Surface, type=NODE, name=SET_BASE_NODE_CNS_, internal
SET_BASE_NODE, 1.
*Surface, type=NODE, name=SET_TIP_NODE_CNS_, internal
SET_TIP_NODE, 1.
** Constraint: BASE_MPC
*MPC
BEAM, SET_BASE_NODE, SET_RP_BASE
** Constraint: TIP_MPC
*MPC
BEAM, SET_TIP_NODE, Boom_5m-1.SET_RP_TIP
*End Assembly
*Amplitude, name=AMP_ROT60
             0.,              0.,              3.,             0.2,             10.,             0.7,             15.,              1.
** 
** MATERIALS
** 
*Material, name=Steel
*Density
7850.,
*Elastic
 2.1e+11, 0.3
** ----------------------------------------------------------------
** 
** STEP: StaticEquil
** 
*Step, name=StaticEquil, nlgeom=YES
*Static
0.1, 1., 1e-05, 1.
*Matrix Generate
STIFFNESS
MASS
*Matrix Output, STIFFNESS, MASS, FORMAT=COORDINATE
** 
** BOUNDARY CONDITIONS
** 
** Name: FixedBase Type: Displacement/Rotation
*Boundary
SET_RP_BASE, 1, 1
SET_RP_BASE, 2, 2
SET_RP_BASE, 3, 3
SET_RP_BASE, 4, 4
SET_RP_BASE, 5, 5
SET_RP_BASE, 6, 6
** 
** LOADS
** 
** Name: GRAV   Type: Gravity
*Dload
ALL_BEAM, GRAV, 9.81, 0., -1., 0.
** 
** OUTPUT REQUESTS
** 
*Restart, write, frequency=0
** 
** FIELD OUTPUT: F-Output-1
** 
*Output, field
*Node Output
RF, U, UR
*Element Output, directions=YES
BF, 
** 
** HISTORY OUTPUT: H-Output-1
** 
*Output, history, variable=PRESELECT
*End Step
** ----------------------------------------------------------------
**
** STEP: ExportMatrices
*Step, name=ExportMatrices, nlgeom=NO, perturbation
*Matrix Generate, Stiffness, Mass
*Matrix Output, Stiffness, Mass, Format=Coordinate
*End Step
